<?xml version="1.0" encoding="UTF-8"?>

<!-- generated on 2022-09-14 11:17:37 by Eclipse SUMO netedit Version 1.10.0
<configuration xmlns:xsi="http://www.w3.org/2001/XMLSchema-instance" xsi:noNamespaceSchemaLocation="http://sumo.dlr.de/xsd/netconvertConfiguration.xsd">

    <input>
        <sumo-net-file value="D:\MASTER%20THESIS\Practical%20part\Networks\real_scenario\radwanska_crossing_act.net.xml"/>
    </input>

    <output>
        <output-file value="D:\MASTER%20THESIS\Practical%20part\Networks\real_scenario\radwanska_crossing_act.net.xml"/>
    </output>

    <processing>
        <geometry.min-radius.fix.railways value="false"/>
        <geometry.max-grade.fix value="false"/>
        <offset.disable-normalization value="true"/>
        <lefthand value="false"/>
    </processing>

    <junctions>
        <no-internal-links value="false"/>
        <no-turnarounds value="true"/>
        <junctions.corner-detail value="5"/>
        <junctions.limit-turn-speed value="5.5"/>
        <rectangular-lane-cut value="false"/>
    </junctions>

    <pedestrian>
        <walkingareas value="false"/>
    </pedestrian>

    <netedit>
        <additional-files value="D:\MASTER%20THESIS\Practical%20part\Networks\real_scenario\network\additional.xml"/>
        <route-files value="D:\MASTER%20THESIS\Practical%20part\Networks\real_scenario\network\demandNS.rou.xml"/>
    </netedit>

    <report>
        <aggregate-warnings value="5"/>
    </report>

</configuration>
-->

<routes xmlns:xsi="http://www.w3.org/2001/XMLSchema-instance" xsi:noNamespaceSchemaLocation="http://sumo.dlr.de/xsd/routes_file.xsd">
</routes>
