<?xml version="1.0" encoding="UTF-8"?>

<!-- generated on 2022-10-23 02:50:35 by Eclipse SUMO netedit Version 1.10.0
<configuration xmlns:xsi="http://www.w3.org/2001/XMLSchema-instance" xsi:noNamespaceSchemaLocation="http://sumo.dlr.de/xsd/netconvertConfiguration.xsd">

    <input>
        <sumo-net-file value="D:\MASTER%20THESIS\Practical%20part\Networks\real_scenario\radwanska_crossing_act.net.xml"/>
    </input>

    <output>
        <output-file value="D:\MASTER%20THESIS\Practical%20part\Networks\real_scenario\radwanska_crossing_act.net.xml"/>
    </output>

    <processing>
        <geometry.min-radius.fix.railways value="false"/>
        <geometry.max-grade.fix value="false"/>
        <offset.disable-normalization value="true"/>
        <lefthand value="false"/>
    </processing>

    <junctions>
        <no-turnarounds value="true"/>
        <junctions.corner-detail value="5"/>
        <junctions.limit-turn-speed value="5.5"/>
        <rectangular-lane-cut value="false"/>
    </junctions>

    <pedestrian>
        <walkingareas value="false"/>
    </pedestrian>

    <netedit>
        <route-files value="D:\MASTER%20THESIS\Practical%20part\Networks\real_scenario\network\demand_7_8.rou.xml"/>
    </netedit>

    <report>
        <aggregate-warnings value="5"/>
    </report>

</configuration>
-->

<routes xmlns:xsi="http://www.w3.org/2001/XMLSchema-instance" xsi:noNamespaceSchemaLocation="http://sumo.dlr.de/xsd/routes_file.xsd">
    <flow id="flow_0" begin="0.00" from="SM2" to="M2M" end="3600.00" vehsPerHour="641.03"/>
    <flow id="flow_1" begin="0.00" from="SM2" to="M2E" end="3600.00" vehsPerHour="161.00"/>
    <flow id="flow_10" begin="0.00" from="WM1" to="M2M" end="3600.00" vehsPerHour="136.00"/>
    <flow id="flow_11" begin="0.00" from="EM2" to="M1W" end="3600.00" vehsPerHour="150.00"/>
    <flow id="flow_12" begin="0.00" from="EM2" to="M1S" end="3600.00" vehsPerHour="106.00"/>
    <flow id="flow_13" begin="0.00" from="EM2" to="M2M" end="3600.00" vehsPerHour="30.00"/>
    <flow id="flow_2" begin="0.00" from="SM2" to="M1W" end="3600.00" vehsPerHour="40.00"/>
    <flow id="flow_3" begin="0.00" from="SM2" to="M1S" end="3600.00" vehsPerHour="22.00"/>
    <flow id="flow_4" begin="0.00" from="NM" to="M1S" end="3600.00" vehsPerHour="468.99"/>
    <flow id="flow_5" begin="0.00" from="NM" to="M1W" end="3600.00" vehsPerHour="84.00"/>
    <flow id="flow_6" begin="0.00" from="NM" to="M2E" end="3600.00" vehsPerHour="60.00"/>
    <flow id="flow_7" begin="0.00" from="NM" to="M2M" end="3600.00" vehsPerHour="12.00"/>
    <flow id="flow_8" begin="0.00" from="WM1" to="M2E" end="3600.00" vehsPerHour="199.00"/>
    <flow id="flow_9" begin="0.00" from="WM1" to="M1S" end="3600.00" vehsPerHour="96.00"/>
    <personFlow id="personFlow_0" begin="0.00" end="3600.00" personsPerHour="40.00">
        <walk from="SM2" to="M2M"/>
    </personFlow>
    <personFlow id="personFlow_1" begin="0.00" end="3600.00" personsPerHour="60.00">
        <walk from="M2M" to="SM2"/>
    </personFlow>
    <personFlow id="personFlow_2" begin="0.00" end="3600.00" personsPerHour="45.00">
        <walk from="NM" to="M1S"/>
    </personFlow>
    <personFlow id="personFlow_3" begin="0.00" end="3600.00" personsPerHour="55.00">
        <walk from="M1S" to="NM"/>
    </personFlow>
    <personFlow id="personFlow_4" begin="0.00" end="3600.00" personsPerHour="45.00">
        <walk from="WM1" to="M2E"/>
    </personFlow>
    <personFlow id="personFlow_5" begin="0.00" end="3600.00" personsPerHour="55.00">
        <walk from="M1W" to="EM2"/>
    </personFlow>
    <personFlow id="personFlow_6" begin="0.00" end="3600.00" personsPerHour="30.00">
        <walk from="EM2" to="M1W"/>
    </personFlow>
    <personFlow id="personFlow_7" begin="0.00" end="3600.00" personsPerHour="25.00">
        <walk from="M2E" to="WM1"/>
    </personFlow>
</routes>
