<?xml version="1.0" encoding="UTF-8"?>

<!-- generated on 2022-12-12 00:11:02 by Eclipse SUMO netedit Version 1.10.0
<configuration xmlns:xsi="http://www.w3.org/2001/XMLSchema-instance" xsi:noNamespaceSchemaLocation="http://sumo.dlr.de/xsd/netconvertConfiguration.xsd">

    <input>
        <sumo-net-file value="D:\MASTER%20THESIS\Practical%20part\Networks\real_scenario\radwanska_crossing_act.net.xml"/>
    </input>

    <output>
        <output-file value="D:\MASTER%20THESIS\Practical%20part\Networks\real_scenario\radwanska_crossing_act.net.xml"/>
    </output>

    <processing>
        <geometry.min-radius.fix.railways value="false"/>
        <geometry.max-grade.fix value="false"/>
        <offset.disable-normalization value="true"/>
        <lefthand value="false"/>
    </processing>

    <junctions>
        <no-internal-links value="false"/>
        <no-turnarounds value="true"/>
        <junctions.corner-detail value="5"/>
        <junctions.limit-turn-speed value="5.5"/>
        <rectangular-lane-cut value="false"/>
    </junctions>

    <pedestrian>
        <walkingareas value="false"/>
    </pedestrian>

    <report>
        <aggregate-warnings value="5"/>
    </report>

</configuration>
-->

<additional xmlns:xsi="http://www.w3.org/2001/XMLSchema-instance" xsi:noNamespaceSchemaLocation="http://sumo.dlr.de/xsd/additional_file.xsd">
    <tlLogic id="gneJ1" type="static" programID="0" offset="0">
        <phase duration="35" state="grrrrrGggggggGGGGr"/>
        <phase duration="10" state="grrrrrGggggggGGrrr"/>
        <phase duration="3" state="rrrrrryyyyyyyyyrrr"/>
        <phase duration="3" state="rrrrrrggggrrrrrrrr"/>
        <phase duration="18" state="rrrrrrggggrrrrrrrr"/>
        <phase duration="3" state="yyyyrryyyyrrrrrrrr"/>
        <phase duration="57" state="gGGGrrrrrrrrrrrrrG"/>
        <phase duration="3" state="gGGGyyrrrrrrrrrrrG"/>
        <phase duration="15" state="gGGGGGrrrrrrrrrrrG"/>
        <phase duration="3" state="yyyyyyrrrrrrrrrrrr"/>
        <phase duration="3" state="rrrrrryyyyyyyyyrrr"/>
    </tlLogic>
</additional>
